*MODEL INPUT FILE            B     1     1     1   999     0
*FILES              
MODEL          CRGRO046
FILEX          7\000007.BNX D:\B\0\00000                                                                    
FILEA          7\000007.BNA D:\B\0\00000                                                                    
FILET          7\000007.BNT D:\B\0\00000                                                                    
SPECIES        BNGRO046.SPE C:\DSSAT46\GENOTYPE\                                                            
ECOTYPE        BNGRO046.ECO C:\DSSAT46\GENOTYPE\                                                            
CULTIVAR       BNGRO046.CUL C:\DSSAT46\GENOTYPE\                                                            
PESTS          BNGRO046.PST C:\DSSAT46\PEST\                                                                
SOILS          SOIL.SOL     C:\DSSAT46\SOIL\                                                                
WEATHER        PALM8034.WTH C:\DSSAT46\Weather\                                                             
OUTPUT         OVERVIEW
*SIMULATION CONTROL 
                  32     1     S 1980092  2150 S1                       
                   N     N     N     N     N     N     N     N     M
                   M     M     E     R     S     L     R     1     G     S     2     D
                   A     A     D     N     M
                   N     Y     Y     1     Y     Y     Y     Y     Y     N     Y     N     Y
!AUTOMATIC MANAGEM  
               1980106 1980106   40.  100.   30.   40.   10.
                 30.   50.  100. GS000 IR001  10.0 1.000
                 30.   50.   25. FE001 GS000
                100.     1   20.
                     0 2001001  100.    0.
*EXP.DETAILS        
  17\000007 BN PALMIRA_ANALISIS SENSIBILIDAD                               
*TREATMENTS         
  1 1 1 0 SIM                      
*CULTIVARS          
   BN 000007 Jatu Rong       
*FIELDS             
   CCLA0001 PALM8034   0.0  -99. DR000  -99. 100.0   -99 C      -99. CCPA000030
         -99.00000       -99.00000    -99.00               1.0  100.   1.0 -99.0   -99   -99
*INITIAL CONDITIONS 
               0     0     0  1.00  1.00   0.0     0  0.00  0.00  100.    0.
      5. 0.000   0.0   0.0
     15. 0.000   0.0   0.0
     25. 0.000   0.0   0.0
     35. 0.000   0.0   0.0
     50. 0.000   0.0   0.0
     65. 0.000   0.0   0.0
     80. 0.000   0.0   0.0
     99. 0.000   0.0   0.0
    122. 0.000   0.0   0.0
    137. 0.000   0.0   0.0
    159. 0.000   0.0   0.0
    184. 0.000   0.0   0.0
    209. 0.000   0.0   0.0
*PLANTING DETAILS   
   1980106     -99  26.6  26.6     S     R   60.  -99.   2.0  -99.  -99. -99.0 -99.0 -99.0
*IRRIGATION         
   1.000    0.    0.    0. GS000 IR001   0.0
*FERTILIZERS        
*RESIDUES           
*CHEMICALS          
*TILLAGE            
*ENVIRONMENT        
*HARVEST            
*SOIL               
 CCPA000030  Veltkamp    C      -99.   Silty Clay Loam                                 
 Palmira     Colombia      3.500  76.350 Fine-silty, mixed, isohyperth. Aquic Hapludoll    
 -99    0.09  11.0  0.40   84.  1.00  1.00 IB001 IB001 IB001 -99  
    5.       0.204 0.340 0.392 1.000  -99.  1.45 2.190 -99.0 -99.0 -99.0 -99.0  6.90-99.00-99.00-99.00
   15.       0.204 0.340 0.392 1.000  -99.  1.45 2.190 -99.0 -99.0 -99.0 -99.0  6.90-99.00-99.00-99.00
   25.       0.209 0.345 0.390 0.750  -99.  1.45 1.210 -99.0 -99.0 -99.0 -99.0  7.20-99.00-99.00-99.00
   35.       0.209 0.345 0.390 0.500  -99.  1.45 1.210 -99.0 -99.0 -99.0 -99.0  7.20-99.00-99.00-99.00
   50.       0.198 0.335 0.390 0.350  -99.  1.49 0.530 -99.0 -99.0 -99.0 -99.0  8.00-99.00-99.00-99.00
   65.       0.185 0.323 0.395 0.200  -99.  1.58 0.200 -99.0 -99.0 -99.0 -99.0  8.20-99.00-99.00-99.00
   80.       0.185 0.323 0.395 0.150  -99.  1.58 0.200 -99.0 -99.0 -99.0 -99.0  8.20-99.00-99.00-99.00
   99.       0.201 0.328 0.408 0.100  -99.  1.54 0.100 -99.0 -99.0 -99.0 -99.0  8.10-99.00-99.00-99.00
  122.       0.198 0.325 0.410 0.050  -99.  1.58 0.090 -99.0 -99.0 -99.0 -99.0  8.20-99.00-99.00-99.00
  137.       0.159 0.288 0.399 0.000  -99.  1.50 0.090 -99.0 -99.0 -99.0 -99.0  8.30-99.00-99.00-99.00
  159.       0.110 0.242 0.402 0.000  -99.  1.69 0.100 -99.0 -99.0 -99.0 -99.0  8.30-99.00-99.00-99.00
  184.       0.047 0.177 0.351 0.000  -99.  1.59 0.080 -99.0 -99.0 -99.0 -99.0  8.00-99.00-99.00-99.00
  209.       0.050 0.193 0.410 0.000  -99.  1.45 0.120 -99.0 -99.0 -99.0 -99.0  8.50-99.00-99.00-99.00
                    
    5.-99.00 -99.0 -99.0 -99.0 -99.0 -99.0 -99.0 -99.0 -99.0 -99.0-99.00 -99.0 -99.0 -99.0 -99.0 -99.0  -99.
   15.-99.00 -99.0 -99.0 -99.0 -99.0 -99.0 -99.0 -99.0 -99.0 -99.0-99.00 -99.0 -99.0 -99.0 -99.0 -99.0  -99.
   25.-99.00 -99.0 -99.0 -99.0 -99.0 -99.0 -99.0 -99.0 -99.0 -99.0-99.00 -99.0 -99.0 -99.0 -99.0 -99.0  -99.
   35.-99.00 -99.0 -99.0 -99.0 -99.0 -99.0 -99.0 -99.0 -99.0 -99.0-99.00 -99.0 -99.0 -99.0 -99.0 -99.0  -99.
   50.-99.00 -99.0 -99.0 -99.0 -99.0 -99.0 -99.0 -99.0 -99.0 -99.0-99.00 -99.0 -99.0 -99.0 -99.0 -99.0  -99.
   65.-99.00 -99.0 -99.0 -99.0 -99.0 -99.0 -99.0 -99.0 -99.0 -99.0-99.00 -99.0 -99.0 -99.0 -99.0 -99.0  -99.
   80.-99.00 -99.0 -99.0 -99.0 -99.0 -99.0 -99.0 -99.0 -99.0 -99.0-99.00 -99.0 -99.0 -99.0 -99.0 -99.0  -99.
   99.-99.00 -99.0 -99.0 -99.0 -99.0 -99.0 -99.0 -99.0 -99.0 -99.0-99.00 -99.0 -99.0 -99.0 -99.0 -99.0  -99.
  122.-99.00 -99.0 -99.0 -99.0 -99.0 -99.0 -99.0 -99.0 -99.0 -99.0-99.00 -99.0 -99.0 -99.0 -99.0 -99.0  -99.
  137.-99.00 -99.0 -99.0 -99.0 -99.0 -99.0 -99.0 -99.0 -99.0 -99.0-99.00 -99.0 -99.0 -99.0 -99.0 -99.0  -99.
  159.-99.00 -99.0 -99.0 -99.0 -99.0 -99.0 -99.0 -99.0 -99.0 -99.0-99.00 -99.0 -99.0 -99.0 -99.0 -99.0  -99.
  184.-99.00 -99.0 -99.0 -99.0 -99.0 -99.0 -99.0 -99.0 -99.0 -99.0-99.00 -99.0 -99.0 -99.0 -99.0 -99.0  -99.
  209.-99.00 -99.0 -99.0 -99.0 -99.0 -99.0 -99.0 -99.0 -99.0 -99.0-99.00 -99.0 -99.0 -99.0 -99.0 -99.0  -99.
                    
    5.-99.00-99.00-99.00-99.00
   15.-99.00-99.00-99.00-99.00
   25.-99.00-99.00-99.00-99.00
   35.-99.00-99.00-99.00-99.00
   50.-99.00-99.00-99.00-99.00
   65.-99.00-99.00-99.00-99.00
   80.-99.00-99.00-99.00-99.00
   99.-99.00-99.00-99.00-99.00
  122.-99.00-99.00-99.00-99.00
  137.-99.00-99.00-99.00-99.00
  159.-99.00-99.00-99.00-99.00
  184.-99.00-99.00-99.00-99.00
  209.-99.00-99.00-99.00-99.00
*CULTIVAR           
000007 Jatu Rong        ANDIND 12.17 0.050 24.00  2.50  9.00 11.00 18.00 0.980 320.0 133.0  1.00 0.600 15.00  3.50 10.00  78.0 0.235 0.030
