*MODEL INPUT FILE            B     1     1     1   999     0
*FILES              
MODEL          CRGRO046
FILEX          PASA1701.BNX                                                                                 
FILEA          PASA1701.BNA                                                                                 
FILET          PASA1701.BNT                                                                                 
SPECIES        BNGRO046.SPE                                                                                 
ECOTYPE        BNGRO046.ECO                                                                                 
CULTIVAR       BNGRO046.CUL                                                                                 
PESTS          BNGRO046.PST C:\DSSAT46\PEST\                                                                
SOILS          SOIL.SOL                                                                                     
WEATHER        BARI8332.WTH                                                                                 
OUTPUT         OVERVIEW
*SIMULATION CONTROL 
                  28     1     S 1985001  2150 S1                       
                   Y     N     N     N     N     N     N     N     M
                   M     M     E     R     S     L     R     1     G     S     2     D
                   A     N     D     N     M
                   N     Y     Y     1     Y     Y     Y     Y     Y     N     Y     N     Y
!AUTOMATIC MANAGEM  
               1985091 1985124   40.  100.   30.   40.   10.
                 30.   50.  100. GS000 IR001  10.0 1.000
                 30.   50.   25. FE001 GS000
                100.     1   20.
                     0 2001001  100.    0.
*EXP.DETAILS        
  1PASA1701 BN barichara_ANALISIS SENSIBILIDAD                             
*TREATMENTS         
  1 1 1 0 SIM                      
*CULTIVARS          
   BN IB0035 BAT 1393        
*FIELDS             
   CCMO0001 BARI8332   0.0  -99. DR000  -99. 100.0   -99 C      -99. CCLA001310
         -99.00000       -99.00000    -99.00               1.0  100.   1.0 -99.0   -99   -99
*INITIAL CONDITIONS 
               0     0     0  1.00  1.00   0.0     0  0.00  0.00  100.    0.
      5. 0.287   0.0   0.0
     15. 0.287   0.0   0.0
     30. 0.287   0.0   0.0
     45. 0.287   0.0   0.0
     60. 0.287   0.0   0.0
     80. 0.287   0.0   0.0
    100. 0.287   0.0   0.0
*PLANTING DETAILS   
   1985091     -99  26.6  26.6     S     R   60.  -99.   2.0  -99.  -99. -99.0 -99.0 -99.0
*IRRIGATION         
   1.000    0.    0.    0. GS000 IR001   0.0
*FERTILIZERS        
*RESIDUES           
*CHEMICALS          
*TILLAGE            
*ENVIRONMENT        
*HARVEST            
*SOIL               
 CCLA001310  -99         C      -99.   Barichara                                       
 00          Colombia      6.600 -73.200 -99                                               
 BN     0.13   6.0  0.40   88.  1.00  1.00 IB00  IB00  IB00  -99  
    5.       0.183 0.287 0.314 1.000 0.430  1.30 -99.0  33.0  21.0 -99.0  -9.0  5.80-99.00-99.00-99.00
   15.       0.217 0.287 0.314 1.000 0.230  1.40 -99.0  38.0  22.0 -99.0  -9.0  5.80-99.00-99.00-99.00
   30.       0.216 0.287 0.314 0.638 0.230  1.40 -99.0  39.0  20.0 -99.0  -9.0  5.70-99.00-99.00-99.00
   45.       0.229 0.287 0.314 0.407 .0600  1.40 -99.0  40.0  20.0 -99.0  -9.0  5.80-99.00-99.00-99.00
   60.       0.229 0.287 0.314 0.407 .0600  1.40 -99.0  40.0  20.0 -99.0  -9.0  5.80-99.00-99.00-99.00
   80.       0.222 0.287 0.314 0.202 .0600  1.30 -99.0  40.0  20.0 -99.0  -9.0  5.80-99.00-99.00-99.00
  100.       0.222 0.287 0.314 0.202 .0600  1.30 -99.0  40.0  20.0 -99.0  -9.0  5.80-99.00-99.00-99.00
                    
    5.-99.00 -99.0 -99.0 -99.0 -99.0 -99.0 -99.0 -99.0 -99.0 -99.0-99.00 -99.0 -99.0 -99.0 -99.0 -99.0  -99.
   15.-99.00 -99.0 -99.0 -99.0 -99.0 -99.0 -99.0 -99.0 -99.0 -99.0-99.00 -99.0 -99.0 -99.0 -99.0 -99.0  -99.
   30.-99.00 -99.0 -99.0 -99.0 -99.0 -99.0 -99.0 -99.0 -99.0 -99.0-99.00 -99.0 -99.0 -99.0 -99.0 -99.0  -99.
   45.-99.00 -99.0 -99.0 -99.0 -99.0 -99.0 -99.0 -99.0 -99.0 -99.0-99.00 -99.0 -99.0 -99.0 -99.0 -99.0  -99.
   60.-99.00 -99.0 -99.0 -99.0 -99.0 -99.0 -99.0 -99.0 -99.0 -99.0-99.00 -99.0 -99.0 -99.0 -99.0 -99.0  -99.
   80.-99.00 -99.0 -99.0 -99.0 -99.0 -99.0 -99.0 -99.0 -99.0 -99.0-99.00 -99.0 -99.0 -99.0 -99.0 -99.0  -99.
  100.-99.00 -99.0 -99.0 -99.0 -99.0 -99.0 -99.0 -99.0 -99.0 -99.0-99.00 -99.0 -99.0 -99.0 -99.0 -99.0  -99.
                    
    5.-99.00-99.00-99.00-99.00
   15.-99.00-99.00-99.00-99.00
   30.-99.00-99.00-99.00-99.00
   45.-99.00-99.00-99.00-99.00
   60.-99.00-99.00-99.00-99.00
   80.-99.00-99.00-99.00-99.00
  100.-99.00-99.00-99.00-99.00
*CULTIVAR           
IB0035 BAT 1393         ANDDET 12.17 0.020 25.00  3.50 11.00 22.00 12.00 0.990 325.0 133.0  1.00 0.400 15.00  3.30 11.00  78.0 0.235 0.030
