*SOILS: General DSSAT Soil Input File
! DSSAT v4.6; 07/01/2013
!
! Standard Soil Profiles
!
! The following generic information was developed by A.J. Gijsman:
!
! - BD was estimated as BD = 100 / (SOM% / 0.224 + (100 - SOM%) / mineral BD)  
!   (Adams, 1973; Rawls and Brakensiek, 1985).
! - LL and DUL are according to Saxton et al., 1986.
! - SAT was taken as a fraction of porosity (Dalgliesh and Foale, 1998):
!   0.93 for soil classes S, SL and LS; 0.95 for soil classes L, SIL, SI,
!   SCL and SC; and 0.97 for soil classes C, CL, SIC and SICL.
!   For this, porosity was estimated as: POR = 1 - BD / APD (in which APD
!   is the adjusted particle density, i.e. corrected for SOM; Baumer and Rice, 1988).
! - The ranges of LL and DUL values were calculated by stepping through the
!   complete texture triangle in steps of 1% sand, 1% silt and 1% clay (>5000 
!   combinations), but with the texture limitations that Saxton set for his method
!   taken into consideration. For SAT, these limitations do not hold, as this was
!   based on POR and not on Saxton. See Gijsman et al., 2002.
! - The root growth distribution function SRGF was was calculated as:
!   SRGF = 1 * EXP(-0.02 * LAYER_CENTER); SRGF was set 1 for LAYER_BOTTOM <= 15.
!
! SOIL CLASS       BD                LL               DUL               SAT
! ========== =============     =============     =============     =============
!   C        1.129 - 1.512     0.220 - 0.346     0.330 - 0.467     0.413 - 0.488
!   CL       1.243 - 1.502     0.156 - 0.218     0.282 - 0.374     0.417 - 0.512
!   L        1.245 - 1.483     0.083 - 0.156     0.222 - 0.312     0.415 - 0.501
!   LS       1.353 - 1.629     0.059 - 0.110     0.137 - 0.185     0.355 - 0.416
!   S        1.446 - 1.574     0.055 - 0.085     0.123 - 0.158     0.374 - 0.400
!   SC       1.501 - 1.593     0.195 - 0.294     0.276 - 0.389     0.376 - 0.409
!   SCL      1.475 - 1.636     0.132 - 0.191     0.213 - 0.304     0.360 - 0.418
!   SI       0.978 - 1.464     0.096 - 0.099     0.299 - 0.307     0.442 - 0.488
!   SIC      1.307 - 1.446     0.224 - 0.326     0.379 - 0.456     0.455 - 0.489
!   SICL     1.248 - 1.464     0.155 - 0.219     0.324 - 0.392     0.448 - 0.511
!   SIL      0.968 - 1.464     0.082 - 0.152     0.240 - 0.333     0.439 - 0.547
!   SL       1.142 - 1.647     0.066 - 0.133     0.164 - 0.243     0.348 - 0.499
!
!======================================================================================================
! Start of Generic soil profiles
!======================================================================================================
!
! The 12 Generic soils for SOIL.SOL, as estimated by Arjan Gijsman:
!
! - LL, DUL are according to the Nearest Neighbor method (Jagtap et al, 2004)
! - Ksat at -99 
! - BD according to Gijsman et al (2002)
! - SAT based on the APSRU manual (Dalgliesh and Foale, 1998); i.e. 93-97% of porosity
!   depending on the soil type) in which porosity is according to Baumer and Rice (1988).
!
! References
! Adams W.A. 1973. The effect of organic matter on the bulk and true densities of some
!   uncultivated podzolic soils. J. Soil Science 24, 10-17.
! Baumer O.W. and Rice J.W. 1988. Methods to predict soil input data for DRAINMOD. 
!   Am. Soc. Agr. Eng. Paper 88-2564
! Dalgliesh, N.P., and M.A. Foale. 1998. Soil Matters – monitoring soil water and nitrogen
!   in dryland farming. CSIRO, Agricultural Production Systems Research Unit, 
!   Toowoomba, Queensland, Australia. 122 pp.
! Gijsman A.J., Jagtap S.S., Jones J.W. 2002. Wading through a swamp of complete confusion: 
!   how to choose a method for estimating soil water retention parameters for crop models. 
!   European Journal of Agronomy, 18: 75-105.
! Jagtap S.S., Lal U., Jones J.W., Gijsman A.J., Ritchie J.T. 2004. A dynamic nearest-neighbor
!   method for estimating soil water parameters. Transactions of ASAE 47: 1437-1444
! Rawls W.J. and Brakensiek D.L. 1985. Prediction of soil water properties for hydrologic
!   modeling. In: Jones, E.B. and Ward, T.J. (Eds.), Proc. Symp. Watershed Management
!   in the Eighties. April 30-May 1, 1985, Denver, CO. Am. Soc. Civil Eng., 
!   New York, NY. pp.293-299.
! Saxton K.E., Rawls W.J., Romberger J.S., Papendick R.I. 1986. Estimating generalized soil-water
!   characteristics from texture. Soil Sci. Soc. Am. J. 50, 1031-1036
!
!======================================================================================================

*IB00000001  IBSNAT      SIC      210  DEFAULT - DEEP SILTY CLAY
@SITE        COUNTRY          LAT     LONG SCS FAMILY
 Generic     Generic           -99     -99 Generic
@ SCOM  SALB  SLU1  SLDR  SLRO  SLNF  SLPF  SMHB  SMPX  SMKE
   -99   .11     6    .3    85     1     1 IB001 IB001 IB001
@  SLB  SLMH  SLLL  SDUL  SSAT  SRGF  SSKS  SBDM  SLOC  SLCL  SLSI  SLCF  SLNI  SLHW  SLHB  SCEC  SADC
     5   -99  .228  .385  .481     1   -99   1.3  1.75    50    45     0   .17   6.5   -99   -99   -99
    15   -99  .228  .385  .481     1   -99   1.3  1.75    50    45     0   .17   6.5   -99   -99   -99
    30   -99  .249  .406  .482  .638   -99   1.3   1.6    50    45     0   .17   6.5   -99   -99   -99
    45   -99  .249  .406  .465  .472   -99  1.35  1.45    50    45     0   .14   6.5   -99   -99   -99
    60   -99  .249  .406  .465   .35   -99  1.35  1.45    50    45     0   .14   6.5   -99   -99   -99
    90   -99  .308  .456  .468  .223   -99  1.35   1.1    50    45     0   .11   6.5   -99   -99   -99
   120   -99  .207  .341  .452  .122   -99   1.4   .65    50    45     0   .06   6.5   -99   -99   -99
   150   -99  .243  .365  .455  .067   -99   1.4    .3    50    45     0   .03   6.5   -99   -99   -99
   180   -99  .259  .361  .457  .037   -99   1.4    .1    50    45     0   .01   6.5   -99   -99   -99
   210   -99  .259  .361  .457   .02   -99   1.4   .01    50    45     0     0   6.5   -99   -99   -99

*CCPA000030  -99         SICL     100  Palmira
@SITE        COUNTRY          LAT     LONG SCS FAMILY
 Palmira     Colombia        3.533 -76.386 -99
@ SCOM  SALB  SLU1  SLDR  SLRO  SLNF  SLPF  SMHB  SMPX  SMKE
   -99   .09    11    .4    84     1     1 IB001 IB001 IB001
@  SLB  SLMH  SLLL  SDUL  SSAT  SRGF  SSKS  SBDM  SLOC  SLCL  SLSI  SLCF  SLNI  SLHW  SLHB  SCEC  SADC
     0   -99  .216   .35  .499     1   .15   1.3   2.3  27.7  53.1   -99   -99   7.3   -99   -99   -99
    40   -99  .168  .306  .488     1   .15   1.3    .5  34.4  47.6   -99   -99   8.2   -99   -99   -99
    60   -99  .144  .277  .506  .368   .68   1.3    .2  23.1  56.1   -99   -99   8.2   -99   -99   -99
    80   -99   .14  .272  .492  .247   .23   1.4    .2  28.7  49.1   -99   -99   8.5   -99   -99   -99
   100   -99   .13  .295  .503  .165   .68   1.5    .4  21.9  54.2   -99   -99   8.6   -99   -99   -99

*CCPA000031  -99         C        100  Quilichao
@SITE        COUNTRY          LAT     LONG SCS FAMILY
 Quilichao   Colombia          3.1 -76.517 -99
@ SCOM  SALB  SLU1  SLDR  SLRO  SLNF  SLPF  SMHB  SMPX  SMKE
    BL   .09    11    .4    73     1     1 IB001 IB001 IB001
@  SLB  SLMH  SLLL  SDUL  SSAT  SRGF  SSKS  SBDM  SLOC  SLCL  SLSI  SLCF  SLNI  SLHW  SLHB  SCEC  SADC
     0   -99  .264   .36  .387     1   -99   1.3     5    47    29   -99   -99   6.2   -99   -99   -99
     5   -99  .248  .343   .37     1   -99  1.32     5    53    25   -99   -99     6   -99   -99   -99
    15   -99  .267  .364  .389     1   -99   1.3   4.7    43    29   -99   -99   5.9   -99   -99   -99
    30   -99  .251  .345   .37  .577   -99   1.4   4.1    46    29   -99   -99   5.8   -99   -99   -99
    60   -99  .288  .385  .406  .379   -99   1.3   1.3    42    27   -99   -99   5.6   -99   -99   -99
   100   -99  .297  .395  .414  .217   -99   1.3    .6    51    26   -99   -99     6   -99   -99   -99

*CCLA001310  -99           CL     100  Barichara
@SITE        COUNTRY          LAT     LONG SCS FAMILY
 00          Colombia         6.63   -73.2 -99
@ SCOM  SALB  SLU1  SLDR  SLRO  SLNF  SLPF  SMHB  SMPX  SMKE
    BN   .13     6    .4    88     1     1  IB00  IB00  IB00
@  SLB  SLMH  SLLL  SDUL  SSAT  SRGF  SSKS  SBDM  SLOC  SLCL  SLSI  SLCF  SLNI  SLHW  SLHB  SCEC  SADC
     0   -99  .204  .287  .315     1   .23   1.3   -99    36    23   -99   -99   5.9   -99   -99   -99
     5   -99  .183  .287  .314     1   .43   1.3   -99    33    21   -99   -99   5.8   -99   -99   -99
    15   -99  .217  .287  .314     1   .23   1.4   -99    38    22   -99   -99   5.8   -99   -99   -99
    30   -99  .216  .287  .314  .638   .23   1.4   -99    39    20   -99   -99   5.7   -99   -99   -99
    60   -99  .229  .287  .314  .407   .06   1.4   -99    40    20   -99   -99   5.8   -99   -99   -99
   100   -99  .222  .287  .314  .202   .06   1.3   -99    40    20   -99   -99   5.8   -99   -99   -99
